Version 4.1
SHEET 1 880 680
SYMBOL res -48 48 R0
SYMATTR InstName R1
SYMATTR Value 3
