*$
***************** Zener Diode Electrical Parameters ******************
** 3 Watt Plastic Surface Mount Zener Voltage Regulators
** 1SMB59xxBT3G Series, SZ1SMB59xxT3G Series
** Package: SMB
**--------------------------------------------------------------------
** Product: 1SMB5913BT3G
**--------------------------------------------------------------------
.SUBCKT 1SMB5913BT3 2 1
*      anode cathode
*node: 2     1
D1 2 1 MD1
.MODEL MD1 D   IS=2.39889e-12 N=1.5  XTI=1  RS=2.65
+ CJO=1.68e-8  VJ=0.45        M=0.99
R 1 2 MDR 1.00e+4	
.MODEL MDR RES TC1=0 TC2=0
RZ 2 3 0.1
IZG 4 3 0.5
R4 4 3 1.34
D3 3 4 MD3
.MODEL MD3 D IS=2.5e-10 N=3.0 XTI=1.0 EG=1.5
D2 5 4 MD2
.MODEL MD2 D IS=2.5e-10 N=1.0 XTI=1.0 EG=1.0
EV1 1 5 6 0 1
IBV 0 6 113.6e-3
RBV 6 0 MDRBV 2.90e+1
.MODEL MDRBV RES TC1=0.00102457
.ENDS
*$
**--------------------------------------------------------------------
** Product: 1SMB5914BT3G
**--------------------------------------------------------------------
.SUBCKT 1SMB5914BT3 2 1
*      anode cathode
*node: 2     1
D1 2 1 MD1
.MODEL MD1 D   IS=2.39889e-12 N=1.5  XTI=1  RS=2.65
+ CJO=1.68e-8  VJ=0.45        M=0.99
R 1 2 MDR 1.33e+4	
.MODEL MDR RES TC1=0 TC2=0
RZ 2 3 33
IZG 4 3 0.25
R4 4 3 800
D3 3 4 MD3
.MODEL MD3 D IS=2.5e-12 N=4.69614 XTI=0 EG=0.1
D2 5 4 MD2
.MODEL MD2 D IS=2.5e-12 N=6.19064 XTI=0 EG=0.1
EV1 1 5 6 0 1
IBV 0 6 104.2e-3
RBV 6 0 MDRBV 3.45e+1
.MODEL MDRBV RES TC1=0.00102457
.ENDS
*$
**--------------------------------------------------------------------
** Product: 1SMB5915BT3G
**--------------------------------------------------------------------
.SUBCKT 1SMB5915BT3 2 1
*      anode cathode
*node: 2     1
D1 2 1 MD1
.MODEL MD1 D   IS=2.39889e-12 N=1.5  XTI=1  RS=2.65
+ CJO=1.68e-8  VJ=0.45        M=0.99
R 1 2 MDR 4.00e+4	
.MODEL MDR RES TC1=0 TC2=0
RZ 2 3 0.1
IZG 4 3 0.5
R4 4 3 1.29
D3 3 4 MD3
.MODEL MD3 D IS=2.5e-10 N=3.0 XTI=1.0 EG=1.5
D2 5 4 MD2
.MODEL MD2 D IS=2.5e-10 N=1.0 XTI=1.0 EG=1.0
EV1 1 5 6 0 1
IBV 0 6 96.1e-3
RBV 6 0 MDRBV 4.06e+1
.MODEL MDRBV RES TC1=0.00102457
.ENDS
*$
**--------------------------------------------------------------------
** Product: 1SMB5916BT3G
**--------------------------------------------------------------------
.SUBCKT 1SMB5916BT3 2 1
*      anode cathode
*node: 2     1
D1 2 1 MD1
.MODEL MD1 D   IS=2.39889e-12 N=1.5  XTI=1  RS=2.65
+ CJO=1.68e-8  VJ=0.45        M=0.99
R 1 2 MDR 2.00e+5	
.MODEL MDR RES TC1=0 TC2=0
RZ 2 3 0.1
IZG 4 3 0.5
R4 4 3 1.25
D3 3 4 MD3
.MODEL MD3 D IS=2.5e-10 N=3.0 XTI=1.0 EG=1.5
D2 5 4 MD2
.MODEL MD2 D IS=2.5e-10 N=1.0 XTI=1.0 EG=1.0
EV1 1 5 6 0 1
IBV 0 6 87.2e-3
RBV 6 0 MDRBV 4.93e+1
.MODEL MDRBV RES TC1=0.00102457
.ENDS
*$
**--------------------------------------------------------------------
** Product: 1SMB5917BT3G
**--------------------------------------------------------------------
.SUBCKT 1SMB5917BT3 2 1
*      anode cathode
*node: 2     1
D1 2 1 MD1
.MODEL MD1 D   IS=2.39889e-12 N=1.5  XTI=1  RS=2.65
+ CJO=1.68e-8  VJ=0.45        M=0.99
R 1 2 MDR 3.00e+5	
.MODEL MDR RES TC1=0 TC2=0
RZ 2 3 0.1
IZG 4 3 0.5
R4 4 3 1.22
D3 3 4 MD3
.MODEL MD3 D IS=2.5e-10 N=3.0 XTI=1.0 EG=1.5
D2 5 4 MD2
.MODEL MD2 D IS=2.5e-10 N=1.0 XTI=1.0 EG=1.0
EV1 1 5 6 0 1
IBV 0 6 79.8e-3
RBV 6 0 MDRBV 5.89e+1
.MODEL MDRBV RES TC1=0.00102457
.ENDS
*$
**--------------------------------------------------------------------
** Product: 1SMB5918BT3G
**--------------------------------------------------------------------
.SUBCKT 1SMB5918BT3 2 1
*      anode cathode
*node: 2     1
D1 2 1 MD1
.MODEL MD1 D   IS=2.39889e-12 N=1.5  XTI=1  RS=2.65
+ CJO=1.68e-8  VJ=0.45        M=0.99
R 1 2 MDR 4.00e+5	
.MODEL MDR RES TC1=0 TC2=0
RZ 2 3 0.1
IZG 4 3 0.5
R4 4 3 1.2
D3 3 4 MD3
.MODEL MD3 D IS=2.5e-10 N=3.0 XTI=1.0 EG=1.5
D2 5 4 MD2
.MODEL MD2 D IS=2.5e-10 N=1.0 XTI=1.0 EG=1.0
EV1 1 5 6 0 1
IBV 0 6 73.5e-3
RBV 6 0 MDRBV 6.94e+1
.MODEL MDRBV RES TC1=0.00102457
.ENDS
*$
**--------------------------------------------------------------------
** Product: 1SMB5919BT3G
**--------------------------------------------------------------------
.SUBCKT 1SMB5919BT3 2 1
*      anode cathode
*node: 2     1
D1 2 1 MD1
.MODEL MD1 D   IS=2.39889e-12 N=1.5  XTI=1  RS=2.65
+ CJO=1.68e-8  VJ=0.45        M=0.99
R 1 2 MDR 6.00e+5	
.MODEL MDR RES TC1=0 TC2=0
RZ 2 3 0.1
IZG 4 3 0.5
R4 4 3 1.15
D3 3 4 MD3
.MODEL MD3 D IS=2.5e-10 N=3.0 XTI=1.0 EG=1.5
D2 5 4 MD2
.MODEL MD2 D IS=2.5e-10 N=1.0 XTI=1.0 EG=1.0
EV1 1 5 6 0 1
IBV 0 6 66.9e-3
RBV 6 0 MDRBV 8.37e+1
.MODEL MDRBV RES TC1=0.00102457
.ENDS
*$
**--------------------------------------------------------------------
** Product: 1SMB5920BT3G
**--------------------------------------------------------------------
.SUBCKT 1SMB5920BT3 2 1
*      anode cathode
*node: 2     1
D1 2 1 MD1
.MODEL MD1 D   IS=2.39889e-12 N=1.5  XTI=1  RS=2.65
+ CJO=1.68e-8  VJ=0.45        M=0.99
R 1 2 MDR 8.00e+5	
.MODEL MDR RES TC1=0 TC2=0
RZ 2 3 0.1
IZG 4 3 0.5
R4 4 3 1.03
D3 3 4 MD3
.MODEL MD3 D IS=2.5e-10 N=3.0 XTI=1.0 EG=1.5
D2 5 4 MD2
.MODEL MD2 D IS=2.5e-10 N=1.0 XTI=1.0 EG=1.0
EV1 1 5 6 0 1
IBV 0 6 50.5e-3
RBV 6 0 MDRBV 1.02e+2
.MODEL MDRBV RES TC1=0.00102457
.ENDS
*$
**--------------------------------------------------------------------
** Product: 1SMB5921BT3G
**--------------------------------------------------------------------
.SUBCKT 1SMB5921BT3 2 1
*      anode cathode
*node: 2     1
D1 2 1 MD1
.MODEL MD1 D   IS=2.39889e-12 N=1.5  XTI=1  RS=2.65
+ CJO=1.68e-8  VJ=0.45        M=0.99
R 1 2 MDR 1.04e+6	
.MODEL MDR RES TC1=0 TC2=0
RZ 2 3 0.1
IZG 4 3 0.5
R4 4 3 1.06
D3 3 4 MD3
.MODEL MD3 D IS=2.5e-10 N=3.0 XTI=1.0 EG=1.5
D2 5 4 MD2
.MODEL MD2 D IS=2.5e-10 N=1.0 XTI=1.0 EG=1.0
EV1 1 5 6 0 1
IBV 0 6 55.1e-3
RBV 6 0 MDRBV 1.23e+2
.MODEL MDRBV RES TC1=0.00102457
.ENDS
*$
**--------------------------------------------------------------------
** Product: 1SMB5922BT3G
**--------------------------------------------------------------------
.SUBCKT 1SMB5922BT3 2 1
*      anode cathode
*node: 2     1
D1 2 1 MD1
.MODEL MD1 D   IS=2.39889e-12 N=1.5  XTI=1  RS=2.65
+ CJO=1.68e-8  VJ=0.45        M=0.99
R 1 2 MDR 1.20e+6	
.MODEL MDR RES TC1=0 TC2=0
RZ 2 3 0.1
IZG 4 3 0.5
R4 4 3 1.1
D3 3 4 MD3
.MODEL MD3 D IS=2.5e-10 N=3.0 XTI=1.0 EG=1.5
D2 5 4 MD2
.MODEL MD2 D IS=2.5e-10 N=1.0 XTI=1.0 EG=1.0
EV1 1 5 6 0 1
IBV 0 6 50.0e-3
RBV 6 0 MDRBV 1.50e+2
.MODEL MDRBV RES TC1=0.00102457
.ENDS
*$
**--------------------------------------------------------------------
** Product: 1SMB5923BT3G
**--------------------------------------------------------------------
.SUBCKT 1SMB5923BT3 2 1
*      anode cathode
*node: 2     1
D1 2 1 MD1
.MODEL MD1 D   IS=2.39889e-12 N=1.5  XTI=1  RS=2.65
+ CJO=1.68e-8  VJ=0.45        M=0.99
R 1 2 MDR 1.30e+6	
.MODEL MDR RES TC1=0 TC2=0
RZ 2 3 0.1
IZG 4 3 0.5
R4 4 3 1.04
D3 3 4 MD3
.MODEL MD3 D IS=2.5e-10 N=3.0 XTI=1.0 EG=1.5
D2 5 4 MD2
.MODEL MD2 D IS=2.5e-10 N=1.0 XTI=1.0 EG=1.0
EV1 1 5 6 0 1
IBV 0 6 45.7e-3
RBV 6 0 MDRBV 1.79e+2
.MODEL MDRBV RES TC1=0.00102457
.ENDS
*$
**--------------------------------------------------------------------
** Product: 1SMB5924BT3G
**--------------------------------------------------------------------
.SUBCKT 1SMB5924BT3 2 1
*      anode cathode
*node: 2     1
D1 2 1 MD1
.MODEL MD1 D   IS=2.39889e-12 N=1.5  XTI=1  RS=2.65
+ CJO=1.68e-8  VJ=0.45        M=0.99
R 1 2 MDR 1.40e+6	
.MODEL MDR RES TC1=0 TC2=0
RZ 2 3 0.1
IZG 4 3 0.5
R4 4 3 1.08
D3 3 4 MD3
.MODEL MD3 D IS=2.5e-10 N=3.0 XTI=1.0 EG=1.5
D2 5 4 MD2
.MODEL MD2 D IS=2.5e-10 N=1.0 XTI=1.0 EG=1.0
EV1 1 5 6 0 1
IBV 0 6 41.2e-3
RBV 6 0 MDRBV 2.21e+2
.MODEL MDRBV RES TC1=0.00102457
.ENDS
*$
**--------------------------------------------------------------------
** Product: 1SMB5925BT3G
**--------------------------------------------------------------------
.SUBCKT 1SMB5925BT3 2 1
*      anode cathode
*node: 2     1
D1 2 1 MD1
.MODEL MD1 D   IS=2.39889e-12 N=1.5  XTI=1  RS=2.65
+ CJO=1.68e-8  VJ=0.45        M=0.99
R 1 2 MDR 1.60e+6	
.MODEL MDR RES TC1=0 TC2=0
RZ 2 3 0.1
IZG 4 3 0.5
R4 4 3 1.08
D3 3 4 MD3
.MODEL MD3 D IS=2.5e-10 N=3.0 XTI=1.0 EG=1.5
D2 5 4 MD2
.MODEL MD2 D IS=2.5e-10 N=1.0 XTI=1.0 EG=1.0
EV1 1 5 6 0 1
IBV 0 6 37.5e-3
RBV 6 0 MDRBV 2.67e+2
.MODEL MDRBV RES TC1=0.00102457
.ENDS
*$
**--------------------------------------------------------------------
** Product: 1SMB5926BT3G
**--------------------------------------------------------------------
.SUBCKT 1SMB5926BT3 2 1
*      anode cathode
*node: 2     1
D1 2 1 MD1
.MODEL MD1 D   IS=2.39889e-12 N=1.5  XTI=1  RS=2.65
+ CJO=1.68e-8  VJ=0.45        M=0.99
R 1 2 MDR 8.40e+6	
.MODEL MDR RES TC1=0 TC2=0
RZ 2 3 0.1
IZG 4 3 0.5
R4 4 3 1.07
D3 3 4 MD3
.MODEL MD3 D IS=2.5e-10 N=3.0 XTI=1.0 EG=1.5
D2 5 4 MD2
.MODEL MD2 D IS=2.5e-10 N=1.0 XTI=1.0 EG=1.0
EV1 1 5 6 0 1
IBV 0 6 34.1e-3
RBV 6 0 MDRBV 3.23e+2
.MODEL MDRBV RES TC1=0.00102457
.ENDS
*$
**--------------------------------------------------------------------
** Product: 1SMB5927BT3G
**--------------------------------------------------------------------
.SUBCKT 1SMB5927BT3 2 1
*      anode cathode
*node: 2     1
D1 2 1 MD1
.MODEL MD1 D   IS=2.39889e-12 N=1.5  XTI=1  RS=2.65
+ CJO=1.68e-8  VJ=0.45        M=0.99
R 1 2 MDR 9.10e+6	
.MODEL MDR RES TC1=0 TC2=0
RZ 2 3 0.1
IZG 4 3 0.5
R4 4 3 1.06
D3 3 4 MD3
.MODEL MD3 D IS=2.5e-10 N=3.0 XTI=1.0 EG=1.5
D2 5 4 MD2
.MODEL MD2 D IS=2.5e-10 N=1.0 XTI=1.0 EG=1.0
EV1 1 5 6 0 1
IBV 0 6 31.2e-3
RBV 6 0 MDRBV 3.85e+2
.MODEL MDRBV RES TC1=0.00102457
.ENDS
*$
**--------------------------------------------------------------------
** Product: 1SMB5928BT3G
**--------------------------------------------------------------------
.SUBCKT 1SMB5928BT3 2 1
*      anode cathode
*node: 2     1
D1 2 1 MD1
.MODEL MD1 D   IS=2.39889e-12 N=1.5  XTI=1  RS=2.65
+ CJO=1.68e-8  VJ=0.45        M=0.99
R 1 2 MDR 9.90e+6	
.MODEL MDR RES TC1=0 TC2=0
RZ 2 3 0.1
IZG 4 3 0.5
R4 4 3 1.0
D3 3 4 MD3
.MODEL MD3 D IS=2.5e-10 N=3.0 XTI=1.0 EG=1.5
D2 5 4 MD2
.MODEL MD2 D IS=2.5e-10 N=1.0 XTI=1.0 EG=1.0
EV1 1 5 6 0 1
IBV 0 6 28.8e-3
RBV 6 0 MDRBV 4.51e+2
.MODEL MDRBV RES TC1=0.00102457
.ENDS
*$
**--------------------------------------------------------------------
** Product: 1SMB5929BT3G
**--------------------------------------------------------------------
.SUBCKT 1SMB5929BT3 2 1
*      anode cathode
*node: 2     1
D1 2 1 MD1
.MODEL MD1 D   IS=2.39889e-12 N=1.5  XTI=1  RS=2.65
+ CJO=1.68e-8  VJ=0.45        M=0.99
R 1 2 MDR 1.14e+7	
.MODEL MDR RES TC1=0 TC2=0
RZ 2 3 0.1
IZG 4 3 0.5
R4 4 3 1.0
D3 3 4 MD3
.MODEL MD3 D IS=2.5e-10 N=3.0 XTI=1.0 EG=1.5
D2 5 4 MD2
.MODEL MD2 D IS=2.5e-10 N=1.0 XTI=1.0 EG=1.0
EV1 1 5 6 0 1
IBV 0 6 25.0e-3
RBV 6 0 MDRBV 6.00e+2
.MODEL MDRBV RES TC1=0.00102457
.ENDS
*$
**--------------------------------------------------------------------
** Product: 1SMB5930BT3G
**--------------------------------------------------------------------
.SUBCKT 1SMB5930BT3 2 1
*      anode cathode
*node: 2     1
D1 2 1 MD1
.MODEL MD1 D   IS=2.39889e-12 N=1.5  XTI=1  RS=2.65
+ CJO=1.68e-8  VJ=0.45        M=0.99
R 1 2 MDR 1.22e+7	
.MODEL MDR RES TC1=0 TC2=0
RZ 2 3 0.1
IZG 4 3 0.5
R4 4 3 1.0
D3 3 4 MD3
.MODEL MD3 D IS=2.5e-10 N=3.0 XTI=1.0 EG=1.5
D2 5 4 MD2
.MODEL MD2 D IS=2.5e-10 N=1.0 XTI=1.0 EG=1.0
EV1 1 5 6 0 1
IBV 0 6 23.4e-3
RBV 6 0 MDRBV 6.84e+2
.MODEL MDRBV RES TC1=0.00102457
.ENDS
*$
**--------------------------------------------------------------------
** Product: 1SMB5931BT3G
**--------------------------------------------------------------------
.SUBCKT 1SMB5931BT3 2 1
*      anode cathode
*node: 2     1
D1 2 1 MD1
.MODEL MD1 D   IS=2.39889e-12 N=1.5  XTI=1  RS=2.65
+ CJO=1.68e-8  VJ=0.45        M=0.99
R 1 2 MDR 1.37e+7	
.MODEL MDR RES TC1=0 TC2=0
RZ 2 3 0.1
IZG 4 3 0.5
R4 4 3 0.96
D3 3 4 MD3
.MODEL MD3 D IS=2.5e-10 N=3.0 XTI=1.0 EG=1.5
D2 5 4 MD2
.MODEL MD2 D IS=2.5e-10 N=1.0 XTI=1.0 EG=1.0
EV1 1 5 6 0 1
IBV 0 6 20.8e-3
RBV 6 0 MDRBV 8.65e+2
.MODEL MDRBV RES TC1=0.00102457
.ENDS
*$
**--------------------------------------------------------------------
** Product: 1SMB5932BT3G
**--------------------------------------------------------------------
.SUBCKT 1SMB5932BT3 2 1
*      anode cathode
*node: 2     1
D1 2 1 MD1
.MODEL MD1 D   IS=2.39889e-12 N=1.5  XTI=1  RS=2.65
+ CJO=1.68e-8  VJ=0.45        M=0.99
R 1 2 MDR 1.52e+7	
.MODEL MDR RES TC1=0 TC2=0
RZ 2 3 0.1
IZG 4 3 0.5
R4 4 3 0.96
D3 3 4 MD3
.MODEL MD3 D IS=2.5e-10 N=3.0 XTI=1.0 EG=1.5
D2 5 4 MD2
.MODEL MD2 D IS=2.5e-10 N=1.0 XTI=1.0 EG=1.0
EV1 1 5 6 0 1
IBV 0 6 18.7e-3
RBV 6 0 MDRBV 1.07e+3
.MODEL MDRBV RES TC1=0.00102457
.ENDS
*$
**--------------------------------------------------------------------
** Product: 1SMB5933BT3G
**--------------------------------------------------------------------
.SUBCKT 1SMB5933BT3 2 1
*      anode cathode
*node: 2     1
D1 2 1 MD1
.MODEL MD1 D   IS=2.39889e-12 N=1.5  XTI=1  RS=2.65
+ CJO=1.68e-8  VJ=0.45        M=0.99
R 1 2 MDR 1.67e+7	
.MODEL MDR RES TC1=0 TC2=0
RZ 2 3 0.1
IZG 4 3 0.5
R4 4 3 0.80
D3 3 4 MD3
.MODEL MD3 D IS=2.5e-10 N=3.0 XTI=1.0 EG=1.5
D2 5 4 MD2
.MODEL MD2 D IS=2.5e-10 N=1.0 XTI=1.0 EG=1.0
EV1 1 5 6 0 1
IBV 0 6 17.0e-3
RBV 6 0 MDRBV 1.29e+3
.MODEL MDRBV RES TC1=0.00102457
.ENDS
*$
**--------------------------------------------------------------------
** Product: 1SMB5934BT3G
**--------------------------------------------------------------------
.SUBCKT 1SMB5934BT3 2 1
*      anode cathode
*node: 2     1
D1 2 1 MD1
.MODEL MD1 D   IS=2.39889e-12 N=1.5  XTI=1  RS=2.65
+ CJO=1.68e-8  VJ=0.45        M=0.99
R 1 2 MDR 1.82e+7	
.MODEL MDR RES TC1=0 TC2=0
RZ 2 3 0.1
IZG 4 3 0.5
R4 4 3 0.85
D3 3 4 MD3
.MODEL MD3 D IS=2.5e-10 N=3.0 XTI=1.0 EG=1.5
D2 5 4 MD2
.MODEL MD2 D IS=2.5e-10 N=1.0 XTI=1.0 EG=1.0
EV1 1 5 6 0 1
IBV 0 6 15.6e-3
RBV 6 0 MDRBV 1.54e+3
.MODEL MDRBV RES TC1=0.00102457
.ENDS
*$
**--------------------------------------------------------------------
** Product: 1SMB5935BT3G
**--------------------------------------------------------------------
.SUBCKT 1SMB5935BT3 2 1
*      anode cathode
*node: 2     1
D1 2 1 MD1
.MODEL MD1 D   IS=2.39889e-12 N=1.5  XTI=1  RS=2.65
+ CJO=1.68e-8  VJ=0.45        M=0.99
R 1 2 MDR 2.06e+7	
.MODEL MDR RES TC1=0 TC2=0
RZ 2 3 0.1
IZG 4 3 0.5
R4 4 3 0.85
D3 3 4 MD3
.MODEL MD3 D IS=2.5e-10 N=3.0 XTI=1.0 EG=1.5
D2 5 4 MD2
.MODEL MD2 D IS=2.5e-10 N=1.0 XTI=1.0 EG=1.0
EV1 1 5 6 0 1
IBV 0 6 13.9e-3
RBV 6 0 MDRBV 1.94e+3
.MODEL MDRBV RES TC1=0.00102457
.ENDS
*$
**--------------------------------------------------------------------
** Product: 1SMB5936BT3G
**--------------------------------------------------------------------
.SUBCKT 1SMB5936BT3 2 1
*      anode cathode
*node: 2     1
D1 2 1 MD1
.MODEL MD1 D   IS=2.39889e-12 N=1.5  XTI=1  RS=2.65
+ CJO=1.68e-8  VJ=0.45        M=0.99
R 1 2 MDR 2.28e+7	
.MODEL MDR RES TC1=0 TC2=0
RZ 2 3 0.1
IZG 4 3 0.5
R4 4 3 0.85
D3 3 4 MD3
.MODEL MD3 D IS=2.5e-10 N=3.0 XTI=1.0 EG=1.5
D2 5 4 MD2
.MODEL MD2 D IS=2.5e-10 N=1.0 XTI=1.0 EG=1.0
EV1 1 5 6 0 1
IBV 0 6 12.5e-3
RBV 6 0 MDRBV 2.40e+3
.MODEL MDRBV RES TC1=0.00102457
.ENDS
*$
**--------------------------------------------------------------------
** Product: 1SMB5937BT3G
**--------------------------------------------------------------------
.SUBCKT 1SMB5937BT3 2 1
*      anode cathode
*node: 2     1
D1 2 1 MD1
.MODEL MD1 D   IS=2.39889e-12 N=1.5  XTI=1  RS=2.65
+ CJO=1.68e-8  VJ=0.45        M=0.99
R 1 2 MDR 2.51e+7	
.MODEL MDR RES TC1=0 TC2=0
RZ 2 3 0.1
IZG 4 3 0.5
R4 4 3 0.82
D3 3 4 MD3
.MODEL MD3 D IS=2.5e-10 N=3.0 XTI=1.0 EG=1.5
D2 5 4 MD2
.MODEL MD2 D IS=2.5e-10 N=1.0 XTI=1.0 EG=1.0
EV1 1 5 6 0 1
IBV 0 6 11.4e-3
RBV 6 0 MDRBV 2.89e+3
.MODEL MDRBV RES TC1=0.00102457
.ENDS
*$
**--------------------------------------------------------------------
** Product: 1SMB5938BT3G
**--------------------------------------------------------------------
.SUBCKT 1SMB5938BT3 2 1
*      anode cathode
*node: 2     1
D1 2 1 MD1
.MODEL MD1 D   IS=2.39889e-12 N=1.5  XTI=1  RS=2.65
+ CJO=1.68e-8  VJ=0.45        M=0.99
R 1 2 MDR 2.74e+7	
.MODEL MDR RES TC1=0 TC2=0
RZ 2 3 0.1
IZG 4 3 0.5
R4 4 3 0.82
D3 3 4 MD3
.MODEL MD3 D IS=2.5e-10 N=3.0 XTI=1.0 EG=1.5
D2 5 4 MD2
.MODEL MD2 D IS=2.5e-10 N=1.0 XTI=1.0 EG=1.0
EV1 1 5 6 0 1
IBV 0 6 10.4e-3
RBV 6 0 MDRBV 3.46e+3
.MODEL MDRBV RES TC1=0.00102457
.ENDS
*$
**--------------------------------------------------------------------
** Product: 1SMB5939BT3G
**--------------------------------------------------------------------
.SUBCKT 1SMB5939BT3 2 1
*      anode cathode
*node: 2     1
D1 2 1 MD1
.MODEL MD1 D   IS=2.39889e-12 N=1.5  XTI=1  RS=2.65
+ CJO=1.68e-8  VJ=0.45        M=0.99
R 1 2 MDR 2.97e+7	
.MODEL MDR RES TC1=0 TC2=0
RZ 2 3 0.1
IZG 4 3 0.5
R4 4 3 0.82
D3 3 4 MD3
.MODEL MD3 D IS=2.5e-10 N=3.0 XTI=1.0 EG=1.5
D2 5 4 MD2
.MODEL MD2 D IS=2.5e-10 N=1.0 XTI=1.0 EG=1.0
EV1 1 5 6 0 1
IBV 0 6 9.6e-3
RBV 6 0 MDRBV 4.06e+3
.MODEL MDRBV RES TC1=0.00102457
.ENDS
*$
**--------------------------------------------------------------------
** Product: 1SMB5940BT3G
**--------------------------------------------------------------------
.SUBCKT 1SMB5940BT3 2 1
*      anode cathode
*node: 2     1
D1 2 1 MD1
.MODEL MD1 D   IS=2.39889e-12 N=1.5  XTI=1  RS=2.65
+ CJO=1.68e-8  VJ=0.45        M=0.99
R 1 2 MDR 3.27e+7	
.MODEL MDR RES TC1=0 TC2=0
RZ 2 3 0.1
IZG 4 3 0.5
R4 4 3 0.82
D3 3 4 MD3
.MODEL MD3 D IS=2.5e-10 N=3.0 XTI=1.0 EG=1.5
D2 5 4 MD2
.MODEL MD2 D IS=2.5e-10 N=1.0 XTI=1.0 EG=1.0
EV1 1 5 6 0 1
IBV 0 6 8.7e-3
RBV 6 0 MDRBV 4.94e+3
.MODEL MDRBV RES TC1=0.00102457
.ENDS
*$
**--------------------------------------------------------------------
** Product: 1SMB5941BT3G
**--------------------------------------------------------------------
.SUBCKT 1SMB5941BT3 2 1
*      anode cathode
*node: 2     1
D1 2 1 MD1
.MODEL MD1 D   IS=2.39889e-12 N=1.5  XTI=1  RS=2.65
+ CJO=1.68e-8  VJ=0.45        M=0.99
R 1 2 MDR 3.58e+7	
.MODEL MDR RES TC1=0 TC2=0
RZ 2 3 0.1
IZG 4 3 0.5
R4 4 3 0.82
D3 3 4 MD3
.MODEL MD3 D IS=2.5e-10 N=3.0 XTI=1.0 EG=1.5
D2 5 4 MD2
.MODEL MD2 D IS=2.5e-10 N=1.0 XTI=1.0 EG=1.0
EV1 1 5 6 0 1
IBV 0 6 8.0e-3
RBV 6 0 MDRBV 5.88e+3
.MODEL MDRBV RES TC1=0.00102457
.ENDS
*$
**--------------------------------------------------------------------
** Product: 1SMB5942BT3G
**--------------------------------------------------------------------
.SUBCKT 1SMB5942BT3 2 1
*      anode cathode
*node: 2     1
D1 2 1 MD1
.MODEL MD1 D   IS=2.39889e-12 N=1.5  XTI=1  RS=2.65
+ CJO=1.68e-8  VJ=0.45        M=0.99
R 1 2 MDR 3.88e+7	
.MODEL MDR RES TC1=0 TC2=0
RZ 2 3 0.1
IZG 4 3 0.5
R4 4 3 0.82
D3 3 4 MD3
.MODEL MD3 D IS=2.5e-10 N=3.0 XTI=1.0 EG=1.5
D2 5 4 MD2
.MODEL MD2 D IS=2.5e-10 N=1.0 XTI=1.0 EG=1.0
EV1 1 5 6 0 1
IBV 0 6 7.3e-3
RBV 6 0 MDRBV 6.99e+3
.MODEL MDRBV RES TC1=0.00102457
.ENDS
*$
**--------------------------------------------------------------------
** Product: 1SMB5943BT3G
**--------------------------------------------------------------------
.SUBCKT 1SMB5943BT3 2 1
*      anode cathode
*node: 2     1
D1 2 1 MD1
.MODEL MD1 D   IS=2.39889e-12 N=1.5  XTI=1  RS=2.65
+ CJO=1.68e-8  VJ=0.45        M=0.99
R 1 2 MDR 4.26e+7	
.MODEL MDR RES TC1=0 TC2=0
RZ 2 3 0.1
IZG 4 3 0.5
R4 4 3 0.82
D3 3 4 MD3
.MODEL MD3 D IS=2.5e-10 N=3.0 XTI=1.0 EG=1.5
D2 5 4 MD2
.MODEL MD2 D IS=2.5e-10 N=1.0 XTI=1.0 EG=1.0
EV1 1 5 6 0 1
IBV 0 6 6.7e-3
RBV 6 0 MDRBV 8.36e+3
.MODEL MDRBV RES TC1=0.00102457
.ENDS
*$
**--------------------------------------------------------------------
** Product: 1SMB5944BT3G
**--------------------------------------------------------------------
.SUBCKT 1SMB5944BT3 2 1
*      anode cathode
*node: 2     1
D1 2 1 MD1
.MODEL MD1 D   IS=2.39889e-12 N=1.5  XTI=1  RS=2.65
+ CJO=1.68e-8  VJ=0.45        M=0.99
R 1 2 MDR 4.71e+7	
.MODEL MDR RES TC1=0 TC2=0
RZ 2 3 0.1
IZG 4 3 0.5
R4 4 3 0.45
D3 3 4 MD3
.MODEL MD3 D IS=2.5e-10 N=3.0 XTI=1.0 EG=1.5
D2 5 4 MD2
.MODEL MD2 D IS=2.5e-10 N=1.0 XTI=1.0 EG=1.0
EV1 1 5 6 0 1
IBV 0 6 6.0e-3
RBV 6 0 MDRBV 1.03e+4
.MODEL MDRBV RES TC1=0.00102457
.ENDS
*$
**--------------------------------------------------------------------
** Product: 1SMB5945BT3G
**--------------------------------------------------------------------
.SUBCKT 1SMB5945BT3 2 1
*      anode cathode
*node: 2     1
D1 2 1 MD1
.MODEL MD1 D   IS=2.39889e-12 N=1.5  XTI=1  RS=2.65
+ CJO=1.68e-8  VJ=0.45        M=0.99
R 1 2 MDR 5.17e+7	
.MODEL MDR RES TC1=0 TC2=0
RZ 2 3 0.1
IZG 4 3 0.5
R4 4 3 1.15
D3 3 4 MD3
.MODEL MD3 D IS=2.5e-10 N=3.0 XTI=1.0 EG=1.5
D2 5 4 MD2
.MODEL MD2 D IS=2.5e-10 N=1.0 XTI=1.0 EG=1.0
EV1 1 5 6 0 1
IBV 0 6 5.5e-3
RBV 6 0 MDRBV 1.24e+4
.MODEL MDRBV RES TC1=0.00102457
.ENDS
*$
**--------------------------------------------------------------------
** Product: 1SMB5946BT3G
**--------------------------------------------------------------------
.SUBCKT 1SMB5946BT3 2 1
*      anode cathode
*node: 2     1
D1 2 1 MD1
.MODEL MD1 D   IS=2.39889e-12 N=1.5  XTI=1  RS=2.65
+ CJO=1.68e-8  VJ=0.45        M=0.99
R 1 2 MDR 5.60e+7	
.MODEL MDR RES TC1=0 TC2=0
RZ 2 3 0.1
IZG 4 3 0.5
R4 4 3 0.80
D3 3 4 MD3
.MODEL MD3 D IS=2.5e-10 N=3.0 XTI=1.0 EG=1.5
D2 5 4 MD2
.MODEL MD2 D IS=2.5e-10 N=1.0 XTI=1.0 EG=1.0
EV1 1 5 6 0 1
IBV 0 6 5.0e-3
RBV 6 0 MDRBV 1.50e+4
.MODEL MDRBV RES TC1=0.00102457
.ENDS
*$
**--------------------------------------------------------------------
** Product: 1SMB5947BT3G
**--------------------------------------------------------------------
.SUBCKT 1SMB5947BT3 2 1
*      anode cathode
*node: 2     1
D1 2 1 MD1
.MODEL MD1 D   IS=2.39889e-12 N=1.5  XTI=1  RS=2.65
+ CJO=1.68e-8  VJ=0.45        M=0.99
R 1 2 MDR 6.22e+7	
.MODEL MDR RES TC1=0 TC2=0
RZ 2 3 0.1
IZG 4 3 0.5
R4 4 3 0.60
D3 3 4 MD3
.MODEL MD3 D IS=2.5e-10 N=3.0 XTI=1.0 EG=1.5
D2 5 4 MD2
.MODEL MD2 D IS=2.5e-10 N=1.0 XTI=1.0 EG=1.0
EV1 1 5 6 0 1
IBV 0 6 4.6e-3
RBV 6 0 MDRBV 1.78e+4
.MODEL MDRBV RES TC1=0.00102457
.ENDS
*$
**--------------------------------------------------------------------
** Product: 1SMB5948BT3G
**--------------------------------------------------------------------
.SUBCKT 1SMB5948BT3 2 1
*      anode cathode
*node: 2     1
D1 2 1 MD1
.MODEL MD1 D   IS=2.39889e-12 N=1.5  XTI=1  RS=2.65
+ CJO=1.68e-8  VJ=0.45        M=0.99
R 1 2 MDR 6.92e+7	
.MODEL MDR RES TC1=0 TC2=0
RZ 2 3 0.1
IZG 4 3 0.5
R4 4 3 0.85
D3 3 4 MD3
.MODEL MD3 D IS=2.5e-10 N=3.0 XTI=1.0 EG=1.5
D2 5 4 MD2
.MODEL MD2 D IS=2.5e-10 N=1.0 XTI=1.0 EG=1.0
EV1 1 5 6 0 1
IBV 0 6 4.1e-3
RBV 6 0 MDRBV 2.22e+4
.MODEL MDRBV RES TC1=0.00102457
.ENDS
*$
**--------------------------------------------------------------------
** Product: 1SMB5949BT3G
**--------------------------------------------------------------------
.SUBCKT 1SMB5949BT3 2 1
*      anode cathode
*node: 2     1
D1 2 1 MD1
.MODEL MD1 D   IS=2.39889e-12 N=1.5  XTI=1  RS=2.65
+ CJO=1.68e-8  VJ=0.45        M=0.99
R 1 2 MDR 7.50e+7	
.MODEL MDR RES TC1=0 TC2=0
RZ 2 3 0.1
IZG 4 3 0.5
R4 4 3 0.65
D3 3 4 MD3
.MODEL MD3 D IS=2.5e-10 N=3.0 XTI=1.0 EG=1.5
D2 5 4 MD2
.MODEL MD2 D IS=2.5e-10 N=1.0 XTI=1.0 EG=1.0
EV1 1 5 6 0 1
IBV 0 6 3.7e-3
RBV 6 0 MDRBV 2.70e+4
.MODEL MDRBV RES TC1=0.00102457
.ENDS
*$
**--------------------------------------------------------------------
** Product: 1SMB5951BT3G
**--------------------------------------------------------------------
.SUBCKT 1SMB5951BT3 2 1
*      anode cathode
*node: 2     1
D1 2 1 MD1
.MODEL MD1 D   IS=2.39889e-12 N=1.5  XTI=1  RS=2.65
+ CJO=1.68e-8  VJ=0.45        M=0.99
R 1 2 MDR 9.12e+7	
.MODEL MDR RES TC1=0 TC2=0
RZ 2 3 0.1
IZG 4 3 0.5
R4 4 3 0.65
D3 3 4 MD3
.MODEL MD3 D IS=2.5e-10 N=3.0 XTI=1.0 EG=1.5
D2 5 4 MD2
.MODEL MD2 D IS=2.5e-10 N=1.0 XTI=1.0 EG=1.0
EV1 1 5 6 0 1
IBV 0 6 3.1e-3
RBV 6 0 MDRBV 3.87e+4
.MODEL MDRBV RES TC1=0.00102457
.ENDS
*$
**--------------------------------------------------------------------
** Product: 1SMB5952BT3G
**--------------------------------------------------------------------
.SUBCKT 1SMB5952BT3 2 1
*      anode cathode
*node: 2     1
D1 2 1 MD1
.MODEL MD1 D   IS=2.39889e-12 N=1.5  XTI=1  RS=2.65
+ CJO=1.68e-8  VJ=0.45        M=0.99
R 1 2 MDR 9.88e+7	
.MODEL MDR RES TC1=0 TC2=0
RZ 2 3 0.1
IZG 4 3 0.5
R4 4 3 0.65
D3 3 4 MD3
.MODEL MD3 D IS=2.5e-10 N=3.0 XTI=1.0 EG=1.5
D2 5 4 MD2
.MODEL MD2 D IS=2.5e-10 N=1.0 XTI=1.0 EG=1.0
EV1 1 5 6 0 1
IBV 0 6 2.9e-3
RBV 6 0 MDRBV 4.48e+4
.MODEL MDRBV RES TC1=0.00102457
.ENDS
*$
**--------------------------------------------------------------------
** Product: 1SMB5953BT3G
**--------------------------------------------------------------------
.SUBCKT 1SMB5953BT3 2 1
*      anode cathode
*node: 2     1
D1 2 1 MD1
.MODEL MD1 D   IS=2.39889e-12 N=1.5  XTI=1  RS=2.65
+ CJO=1.68e-8  VJ=0.45        M=0.99
R 1 2 MDR 1.14e+8	
.MODEL MDR RES TC1=0 TC2=0
RZ 2 3 0.1
IZG 4 3 0.5
R4 4 3 0.65
D3 3 4 MD3
.MODEL MD3 D IS=2.5e-10 N=3.0 XTI=1.0 EG=1.5
D2 5 4 MD2
.MODEL MD2 D IS=2.5e-10 N=1.0 XTI=1.0 EG=1.0
EV1 1 5 6 0 1
IBV 0 6 2.5e-3
RBV 6 0 MDRBV 6.00e+4
.MODEL MDRBV RES TC1=0.00102457
.ENDS
*$
**--------------------------------------------------------------------
** Product: 1SMB5954BT3G
**--------------------------------------------------------------------
.SUBCKT 1SMB5954BT3 2 1
*      anode cathode
*node: 2     1
D1 2 1 MD1
.MODEL MD1 D   IS=2.39889e-12 N=1.5  XTI=1  RS=2.65
+ CJO=1.68e-8  VJ=0.45        M=0.99
R 1 2 MDR 1.216e+8	
.MODEL MDR RES TC1=0 TC2=0
RZ 2 3 0.1
IZG 4 3 0.5
R4 4 3 0.85
D3 3 4 MD3
.MODEL MD3 D IS=2.5e-10 N=3.0 XTI=1.0 EG=1.5
D2 5 4 MD2
.MODEL MD2 D IS=2.5e-10 N=1.0 XTI=1.0 EG=1.0
EV1 1 5 6 0 1
IBV 0 6 2.3e-3
RBV 6 0 MDRBV 6.96e+4
.MODEL MDRBV RES TC1=0.00102457
.ENDS
*$
**--------------------------------------------------------------------
** Product: 1SMB5955BT3G
**--------------------------------------------------------------------
.SUBCKT 1SMB5955BT3 2 1
*      anode cathode
*node: 2     1
D1 2 1 MD1
.MODEL MD1 D   IS=2.39889e-12 N=1.5  XTI=1  RS=2.65
+ CJO=1.68e-8  VJ=0.45        M=0.99
R 1 2 MDR 1.368e+8	
.MODEL MDR RES TC1=0 TC2=0
RZ 2 3 0.1
IZG 4 3 0.5
R4 4 3 0.75
D3 3 4 MD3
.MODEL MD3 D IS=2.5e-10 N=3.0 XTI=1.0 EG=1.5
D2 5 4 MD2
.MODEL MD2 D IS=2.5e-10 N=1.0 XTI=1.0 EG=1.0
EV1 1 5 6 0 1
IBV 0 6 2.1e-3
RBV 6 0 MDRBV 8.57e+4
.MODEL MDRBV RES TC1=0.00102457
.ENDS
*$
**--------------------------------------------------------------------
** Product: 1SMB5956BT3G
**--------------------------------------------------------------------
.SUBCKT 1SMB5956BT3 2 1
*      anode cathode
*node: 2     1
D1 2 1 MD1
.MODEL MD1 D   IS=2.39889e-12 N=1.5  XTI=1    RS=2.65
+ CJO=1.68e-8  VJ=0.45        M=0.99
R 1 2 MDR 1.52e+8	
.MODEL MDR RES TC1=0 TC2=0
RZ 2 3 0.1
IZG 4 3 0.5
R4 4 3 0.85
D3 3 4 MD3
.MODEL MD3 D IS=2.5e-10 N=3.0 XTI=1.0 EG=1.5
D2 5 4 MD2
.MODEL MD2 D IS=2.5e-10 N=1.0 XTI=1.0 EG=1.0
EV1 1 5 6 0 1
IBV 0 6 1.9e-3
RBV 6 0 MDRBV 1.053e+5
.MODEL MDRBV RES TC1=0.00102457
.ENDS
*
******************************************************************************
** Creation: Dec.-07-2023   Rev: 1.0
** onsemi
*$

