* DRB058LAM100 D model
* Model Generated by ROHM
* All Rights Reserved
* Commercial Use or Resale Restricted
* Date: 2019/03/28
.MODEL DRB058LAM100 D
+ IS=14.177E-9
+ N=1.1055
+ RS=19.481E-3
+ IKF=65.966E-3
+ XTI=2.0
+ EG=0.868
+ CJO=385.43E-12
+ M=0.5128
+ VJ=0.5658
+ ISR=4.5921E-9
+ NR=1.1798
+ BV=100
+ TRS1=-4.2000E-3
+ TIKF=7.0186E-03
